/*--------------------------------*- C++ -*----------------------------------*\
  =========                 |
  \\      /  F ield         | OpenFOAM: The Open Source CFD Toolbox
   \\    /   O peration     | Website:  https://openfoam.org
    \\  /    A nd           | Version:  7
     \\/     M anipulation  |
\*---------------------------------------------------------------------------*/
FoamFile
{
    version     2.0;
    format      ascii;
    class       polyBoundaryMesh;
    location    "constant/polyMesh";
    object      boundary;
}
// * * * * * * * * * * * * * * * * * * * * * * * * * * * * * * * * * * * * * //

4
(
    side
    {
        type            patch;
        nFaces          64;
        startFace       7680;
    }
    inlet
    {
        type            patch;
        nFaces          64;
        startFace       7744;
    }
    outlet
    {
        type            patch;
        nFaces          64;
        startFace       7808;
    }
    walls
    {
        type            wall;
        inGroups        List<word> 1(wall);
        nFaces          1344;
        startFace       7872;
    }
)

// ************************************************************************* //
